# File generated by Flopy version 3.3.2 on 02/02/2021 at 17:32:44.
BEGIN options
  COMPLEXITY  simple
END options

