# File generated by Flopy version 3.3.2 on 01/29/2021 at 13:18:46.
BEGIN options
  COMPLEXITY  simple
END options

